Info: SIMULATION PARAMETERS:
Info: TIMESTEP               1
Info: NUMBER OF STEPS        0
Info: STEPS PER CYCLE        10
Info: PERIODIC CELL BASIS 1  88.378 0 0
Info: PERIODIC CELL BASIS 2  0 83.666 0
Info: PERIODIC CELL BASIS 3  0 0 92.396
Info: PERIODIC CELL CENTER   0.417718 22.0054 18.5295
Info: WRAPPING ALL CLUSTERS AROUND PERIODIC BOUNDARIES ON OUTPUT.
Info: FIRST LDB TIMESTEP     50
Info: LAST LDB TIMESTEP     -1
Info: HOM BACKGROUND SCALING 1
Info: PME BACKGROUND SCALING 1
Info: MIN ATOMS PER PATCH    40
Info: INITIAL TEMPERATURE    300
Info: CENTER OF MASS MOVING INITIALLY? NO
Info: DIELECTRIC             1
Info: EXCLUDE                SCALED ONE-FOUR
Info: 1-4 ELECTROSTATICS SCALED BY 1
Info: MODIFIED 1-4 VDW PARAMETERS WILL BE USED
Info: DCD FILENAME           lza_wb_eq.dcd
Info: DCD FREQUENCY          250
Info: DCD FIRST STEP         250
Info: DCD FILE WILL CONTAIN UNIT CELL DATA
Info: XST FILENAME           lza_wb_eq.xst
Info: XST FREQUENCY          250
Info: NO VELOCITY DCD OUTPUT
Info: NO FORCE DCD OUTPUT
Info: OUTPUT FILENAME        lza_wb_eq
Info: BINARY OUTPUT FILES WILL BE USED
Info: RESTART FILENAME       lza_wb_eq.restart
Info: RESTART FREQUENCY      500
Info: BINARY RESTART FILES WILL BE USED
Info: SWITCHING ACTIVE
Info: SWITCHING ON           10
Info: SWITCHING OFF          12
Info: PAIRLIST DISTANCE      14
Info: PAIRLIST SHRINK RATE   0.01
Info: PAIRLIST GROW RATE     0.01
Info: PAIRLIST TRIGGER       0.3
Info: PAIRLISTS PER CYCLE    2
Info: PAIRLISTS ENABLED
Info: MARGIN                 0.495
Info: HYDROGEN GROUP CUTOFF  2.5
Info: PATCH DIMENSION        16.995
Info: ENERGY OUTPUT STEPS    100
Info: CROSSTERM ENERGY INCLUDED IN DIHEDRAL
Info: TIMING OUTPUT STEPS    1000
Info: PRESSURE OUTPUT STEPS  100
Info: LANGEVIN DYNAMICS ACTIVE
Info: LANGEVIN TEMPERATURE   300
Info: LANGEVIN USING BBK INTEGRATOR
Info: LANGEVIN DAMPING COEFFICIENT IS 1 INVERSE PS
Info: LANGEVIN DYNAMICS NOT APPLIED TO HYDROGENS
Info: LANGEVIN PISTON PRESSURE CONTROL ACTIVE
Info:        TARGET PRESSURE IS 1.01325 BAR
Info:     OSCILLATION PERIOD IS 100 FS
Info:             DECAY TIME IS 50 FS
Info:     PISTON TEMPERATURE IS 300 K
Info:       PRESSURE CONTROL IS GROUP-BASED
Info:    INITIAL STRAIN RATE IS 0 0 0
Info:       CELL FLUCTUATION IS ISOTROPIC
Info: PARTICLE MESH EWALD (PME) ACTIVE
Info: PME TOLERANCE               1e-06
Info: PME EWALD COEFFICIENT       0.257952
Info: PME INTERPOLATION ORDER     4
Info: PME GRID DIMENSIONS         96 84 96
Info: PME MAXIMUM GRID SPACING    1
Info: FULL ELECTROSTATIC EVALUATION FREQUENCY      2
Info: USING VERLET I (r-RESPA) MTS SCHEME.
Info: C1 SPLITTING OF LONG RANGE ELECTROSTATICS
Info: PLACING ATOMS IN PATCHES BY HYDROGEN GROUPS
Info: RIGID BONDS TO HYDROGEN : ALL
Info:         ERROR TOLERANCE : 1e-08
Info:          MAX ITERATIONS : 100
Info: RIGID WATER USING SETTLE ALGORITHM
Info: RANDOM NUMBER SEED     1680033624
Info: USE HYDROGEN BONDS?    NO
Info: COORDINATE PDB         /Users/kingstreasure/Documents/molecular_modeling_drug_design/hw_3/solvate.pdb
Info: STRUCTURE FILE         /Users/kingstreasure/Documents/molecular_modeling_drug_design/hw_3/solvate.psf
Info: PARAMETER file: CHARMM format!
Info: PARAMETERS             /Users/kingstreasure/Documents/computation_chemistry_group/charmm36_ff_files/toppar/par_all36m_prot.prm
Info: PARAMETERS             /Users/kingstreasure/Documents/computation_chemistry_group/charmm36_ff_files/toppar/par_all36_lipid.prm
Info: PARAMETERS             /Users/kingstreasure/Documents/computation_chemistry_group/charmm36_ff_files/toppar/par_all36_na.prm
Info: PARAMETERS             /Users/kingstreasure/Documents/computation_chemistry_group/charmm36_ff_files/toppar/par_all36_carb.prm
Info: PARAMETERS             /Users/kingstreasure/Documents/computation_chemistry_group/charmm36_ff_files/toppar/par_all36_cgenff.prm
Info: PARAMETERS             /Users/kingstreasure/Documents/computation_chemistry_group/charmm36_ff_files/toppar/stream/carb/toppar_all36_carb_glycopeptide.str
Info: PARAMETERS             /Applications/VMD 1.9.4a57_x86_64_Rev12.app/Contents/vmd/plugins/noarch/tcl/readcharmmpar1.5/toppar_water_ions_namd.str
Info: USING ARITHMETIC MEAN TO COMBINE L-J SIGMA PARAMETERS
Info: SKIPPING rtf SECTION IN STREAM FILE
Info: SKIPPING rtf SECTION IN STREAM FILE
Info: SUMMARY OF PARAMETERS:
Info: 1121 BONDS
Info: 3712 ANGLES
Info: 10384 DIHEDRAL
Info: 275 IMPROPER
Info: 6 CROSSTERM
Info: 360 VDW
Info: 80 VDW_PAIRS
Info: 0 NBTHOLE_PAIRS
Info: STRUCTURE SUMMARY:
Info: 64915 ATOMS
Info: 43954 BONDS
Info: 24532 ANGLES
Info: 5187 DIHEDRALS
Info: 373 IMPROPERS
Info: 127 CROSSTERMS
Info: 0 EXCLUSIONS
Info: 63914 RIGID BONDS
Info: 130831 DEGREES OF FREEDOM
Info: 21986 HYDROGEN GROUPS
Info: 4 ATOMS IN LARGEST HYDROGEN GROUP
Info: 21986 MIGRATION GROUPS
Info: 4 ATOMS IN LARGEST MIGRATION GROUP
Info: TOTAL MASS = 392366 amu
Info: TOTAL CHARGE = 8 e
Info: MASS DENSITY = 0.953685 g/cm^3
Info: ATOM DENSITY = 0.0950164 atoms/A^3
Info: ADDED 73592 IMPLICIT EXCLUSIONS
Info: NONBONDED TABLE R-SQUARED SPACING: 0.0625
Info: NONBONDED TABLE SIZE: 769 POINTS
Info: REMOVING COM VELOCITY 0.0445616 -0.048033 0.00746688
TCL: Minimizing for 100 steps
ETITLE: TS BOND ANGLE DIHED IMPRP ELECT VDW BOUNDARY MISC KINETIC TOTAL TEMP POTENTIAL TOTAL3 TEMPAVG PRESSURE GPRESSURE VOLUME PRESSAVG GPRESSAVG
ENERGY: 0 365.7301 545.5336 1033.7471 8.3715 -210608.7898 2356667.9644 0.0000 0.0000 0.0000 2148012.5569 0.0000 2148012.5569 2148012.5569 0.0000 969180.1108 1144722.5152 683197.6392 969180.1108 1144722.5152
ENERGY: 20 185.6255 387.0597 1012.4394 18.0020 -217416.6385 17578.8335 0.0000 0.0000 0.0000 -198234.6784 0.0000 -198234.6784 -198234.6784 0.0000 15924.4550 -2464.6490 683197.6392 15924.4550 -2464.6490
ENERGY: 40 329.6762 519.0895 1019.0641 24.1093 -232528.0826 14165.5910 0.0000 0.0000 0.0000 -216470.5526 0.0000 -216470.5526 -216470.5526 0.0000 13825.3417 -5975.3720 683197.6392 13825.3417 -5975.3720
ENERGY: 60 254.0363 450.8893 1020.2153 31.4454 -236645.4901 13664.3667 0.0000 0.0000 0.0000 -221224.5371 0.0000 -221224.5371 -221224.5371 0.0000 13473.3385 -6732.9688 683197.6392 13473.3385 -6732.9688
ENERGY: 80 219.5042 488.4021 1040.9520 35.3839 -243106.7036 14329.4405 0.0000 0.0000 0.0000 -226993.0209 0.0000 -226993.0209 -226993.0209 0.0000 13617.3633 -7183.9360 683197.6392 13617.3633 -7183.9360
ENERGY: 100 232.7616 507.4259 1035.9735 33.6190 -247044.8990 15273.2955 0.0000 0.0000 0.0000 -229961.8236 0.0000 -229961.8236 -229961.8236 0.0000 14054.7192 -7149.6190 683197.6392 14054.7192 -7149.6190
TCL: Running for 10000 steps
ETITLE: TS BOND ANGLE DIHED IMPRP ELECT VDW BOUNDARY MISC KINETIC TOTAL TEMP POTENTIAL TOTAL3 TEMPAVG PRESSURE GPRESSURE VOLUME PRESSAVG GPRESSAVG
ENERGY: 100 232.7616 507.4259 1035.9735 33.6190 -247044.8990 15273.2955 0.0000 0.0000 39137.5686 -190824.2550 301.0742 -229961.8236 -190837.0219 301.0742 -5815.3579 -5782.7674 683197.6392 -5815.3579 -5782.7674
ENERGY: 2100 406.3627 1102.2897 1141.7508 75.2535 -244051.7384 23457.1699 0.0000 0.0000 34711.0149 -183157.8969 267.0220 -217868.9118 -183139.5074 267.2512 -105.6298 -72.5808 627090.3767 1.4664 1.3526
ENERGY: 4100 441.4482 1097.0496 1139.0934 68.5289 -240258.3741 22959.8058 0.0000 0.0000 36459.7257 -178092.7224 280.4743 -214552.4481 -178069.5836 280.5933 6.9254 37.9170 630868.7942 6.1406 5.9949
ENERGY: 6100 409.2073 1110.3242 1136.2429 70.3889 -237013.4089 22335.5342 0.0000 0.0000 37465.5093 -174486.2021 288.2115 -211951.7115 -174464.5939 288.8172 154.9395 187.2780 634206.6630 -16.3247 -16.4582
ENERGY: 8100 422.7388 1103.3394 1134.7327 79.6759 -235580.8844 21864.1904 0.0000 0.0000 38141.4842 -172834.7229 293.4116 -210976.2072 -172809.2588 294.1826 -50.9455 -18.1844 636572.1227 19.0575 18.3379
ENERGY: 10100 408.0381 1103.5644 1139.2622 68.8145 -234254.3679 21584.3145 0.0000 0.0000 38312.5398 -171637.8343 294.7275 -209950.3741 -171612.4026 295.5471 11.6112 43.3742 638359.7792 -0.8221 -1.1838
